
* plot Ids vs. Vds for 5 different Vgs values
.include "C:/Users/cawin/Downloads/50002/nominal.jsim"

* 2-input NAND: inputs are A and B, output is Z
.subckt nand2 a b z
MPD1 z a 1 0 NENH sw=8 sl=1
MPD2 1 b 0 0 NENH sw=8 sl=1
MPU1 z a vdd vdd PENH sw=10 sl=1
MPU2 z b vdd vdd PENH sw=10 sl=1
.ends

* INVERTER: input is A, output is Z
.subckt inv a z
MPD1 z a 0 0 NENH sw=16 sl=1
MPU1 z a vdd vdd PENH sw=16 sl=1
.ends

.subckt XOR2 a b z
MPD1 z a il 0 NENH sw=8 sl=1
XinvB b inv-b inv 
MPD2 z inv-b il 0 NENH sw=8 sl=1
MPD3 il b 0 0 NENH sw=8 sl=1
XinvA a inv-a inv
MPD4 il inv-a 0 0 NENH sw=8 sl=1
MPU1 j1 a vdd vdd PENH sw=10 sl=1
MPU2 z inv-b j1 vdd PENH sw=10 sl=1
MPU3 k1 inv-a vdd vdd PENH sw=10 sl=1
MPU4 z b k1 vdd PENH sw=10 sl=1
.ends


